# Name: example
# SMILES: c1ccccc1C(=O)C
# Net charge: 0
@<TRIPOS>MOLECULE
example
17 17 0 0 0
SMALL
GASTEIGER

@<TRIPOS>ATOM
      1 C          -1.2390   -0.9294    0.3644 C.ar    1  UNL        -0.0510
      2 C          -2.6113   -1.1723    0.4745 C.ar    1  UNL        -0.0620
      3 C          -3.5294   -0.1910    0.1030 C.ar    1  UNL        -0.0620
      4 C          -4.0802    1.0364   -0.3798 C.ar    1  UNL        -0.0620
      5 C          -1.7105    1.2829   -0.4912 C.ar    1  UNL        -0.0510
      6 C          -0.7803    0.3020   -0.1200 C.ar    1  UNL         0.0170
      7 C           0.6741    0.6129   -0.2576 C.2     1  UNL         0.1590
      8 O           1.0305    1.7082   -0.6879 O.2     1  UNL        -0.2950
      9 C           1.6841   -0.4324    0.1378 C.3     1  UNL        -0.0010
     10 H          -0.5530   -1.7162    0.6629 H       1  UNL         0.0630
     11 H          -2.9655   -2.1292    0.8510 H       1  UNL         0.0620
     12 H          -4.5963   -0.3827    0.1897 H       1  UNL         0.0620
     13 H          -3.7941    1.8033   -0.6701 H       1  UNL         0.0620
     14 H          -1.3713    2.2457   -0.8698 H       1  UNL         0.0630
     15 H           1.5656   -1.3267   -0.4794 H       1  UNL         0.0310
     16 H           1.5847   -0.6733    1.1993 H       1  UNL         0.0310
     17 H           2.6920   -0.0385   -0.0270 H       1  UNL         0.0310
@<TRIPOS>BOND
1 1 2 ar
2 2 3 ar
3 3 4 ar
4 4 5 ar
5 5 6 ar
6 6 7 1
7 7 8 2
8 7 9 1
9 6 1 ar
10 1 10 1
11 2 11 1
12 3 12 1
13 4 13 1
14 5 14 1
15 9 15 1
16 9 16 1
17 9 17 1
